savnw-Copy.raw
@!IC, SBASE,REV,XFRRAT,NXFRAT,BASFRQ
0,   100.00, 34,     0,     1, 60.00     / PSS(R)E-34.0    MON, DEC 11 2017  10:41
PSS(R)E PROGRAM APPLICATION GUIDE EXAMPLE
BASE CASE INCLUDING SEQUENCE DATA
GENERAL, THRSHZ=0.0001, PQBRAK=0.7, BLOWUP=5.0
GAUSS, ITMX=100, ACCP=1.6, ACCQ=1.6, ACCM=1.0, TOL=0.0001
NEWTON, ITMXN=20, ACCN=1.0, TOLN=0.1, VCTOLQ=0.1, VCTOLV=0.00001, DVLIM=0.99, NDVFCT=0.99
ADJUST, ADJTHR=0.005, ACCTAP=1.0, TAPLIM=0.05, SWVBND=100.0, MXTPSS=99, MXSWIM=10
TYSL, ITMXTY=20, ACCTY=1.0, TOLTY=0.00001
SOLVER, FNSL, ACTAPS=0, AREAIN=0, PHSHFT=0, DCTAPS=0, SWSHNT=0, FLATST=0, VARLIM=0, NONDIV=0
RATING, 1, "RATE1 ", "RATING SET 1                    "
RATING, 2, "RATE2 ", "RATING SET 2                    "
RATING, 3, "RATE3 ", "RATING SET 3                    "
RATING, 4, "RATE4 ", "RATING SET 4                    "
RATING, 5, "RATE5 ", "RATING SET 5                    "
RATING, 6, "RATE6 ", "RATING SET 6                    "
RATING, 7, "RATE7 ", "RATING SET 7                    "
RATING, 8, "RATE8 ", "RATING SET 8                    "
RATING, 9, "RATE9 ", "RATING SET 9                    "
RATING,10, "RATE10", "RATING SET 10                   "
RATING,11, "RATE11", "RATING SET 11                   "
RATING,12, "RATE12", "RATING SET 12                   "
0 / END OF SYSTEM-WIDE DATA, BEGIN BUS DATA
@!   I,'NAME        ', BASKV, IDE,AREA,ZONE,OWNER, VM,        VA,    NVHI,   NVLO,   EVHI,   EVLO
   101,'NUC-A       ',  21.6000,2,   1,  77,  11,1.02000,  16.5465,1.10000,0.90000,1.10000,0.90000
   102,'NUC-B       ',  21.6000,2,   1,  77,  11,1.02000,  16.5465,1.10000,0.90000,1.10000,0.90000
   151,'NUCPANT     ', 500.0000,1,   1,   1,   1,1.01190,  10.8887,1.10000,0.90000,1.10000,0.90000
   152,'MID500      ', 500.0000,1,   1,   1,   1,1.01707,  -1.1152,1.10000,0.90000,1.10000,0.90000
   153,'MID230      ', 230.0000,1,   1,   1,   1,0.99300,  -3.2357,1.10000,0.90000,1.10000,0.90000
   154,'DOWNTN      ', 230.0000,1,   1,   1,   1,0.93892,  -9.8858,1.10000,0.90000,1.10000,0.90000
   201,'HYDRO       ', 500.0000,1,   2,   2,  22,1.04000,   6.1599,1.10000,0.90000,1.10000,0.90000
   202,'EAST500     ', 500.0000,1,   2,   2,   2,1.00879,  -1.3172,1.10000,0.90000,1.10000,0.90000
   203,'EAST230     ', 230.0000,1,   2,   2,   2,0.96651,  -6.9181,1.10000,0.90000,1.10000,0.90000
   204,'SUB500      ', 500.0000,1,   2,   2,   2,0.97873,  -3.7331,1.10000,0.90000,1.10000,0.90000
   205,'SUB230      ', 230.0000,1,   2,   2,   2,0.94902,  -9.1798,1.10000,0.90000,1.10000,0.90000
   206,'URBGEN      ',  18.0000,2,   2,   2,  22,1.02361,  -2.9699,1.10000,0.90000,1.10000,0.90000
   211,'HYDRO_G     ',  20.0000,2,   2,   2,  22,1.04042,  12.9203,1.10000,0.90000,1.10000,0.90000
  3001,'MINE        ', 230.0000,1,   5,   5,  55,1.02979,  -1.3728,1.10000,0.90000,1.10000,0.90000
  3002,'E. MINE     ', 500.0000,1,   5,   5,   5,1.02791,  -1.8253,1.10000,0.90000,1.10000,0.90000
  3003,'S. MINE     ', 230.0000,1,   5,   5,   5,1.02332,  -2.2538,1.10000,0.90000,1.10000,0.90000
  3004,'WEST        ', 500.0000,1,   5,   5,   5,1.01647,  -3.4289,1.10000,0.90000,1.10000,0.90000
  3005,'WEST        ', 230.0000,1,   5,   5,   5,0.99478,  -5.1800,1.10000,0.90000,1.10000,0.90000
  3006,'UPTOWN      ', 230.0000,1,   5,   5,   5,0.99404,  -3.7922,1.10000,0.90000,1.10000,0.90000
  3007,'RURAL       ', 230.0000,1,   5,   5,   5,0.96370,  -8.5381,1.10000,0.90000,1.10000,0.90000
  3008,'CATDOG      ', 230.0000,1,   5,   5,  55,0.95861,  -9.0490,1.10000,0.90000,1.10000,0.90000
  3011,'MINE_G      ',  13.8000,3,   5,   5,  55,1.04000,   0.0000,1.10000,0.90000,1.10000,0.90000
  3018,'CATDOG_G    ',  13.8000,2,   5,   5,  55,1.02177,  -4.0804,1.10000,0.90000,1.10000,0.90000
0 / END OF BUS DATA, BEGIN LOAD DATA
@!   I,'ID',STAT,AREA,ZONE,      PL,        QL,        IP,        IQ,        YP,        YQ, OWNER,SCALE,INTRPT,  DGENP,     DGENQ, DGENF
   153,'1 ',   1,   1,   1,   200.000,   100.000,     0.000,     0.000,     0.000,     0.000,   1,    1,  0,     0.000,     0.000,   0
   154,'1 ',   1,   2,   1,   600.000,   450.000,     0.000,     0.000,     0.000,     0.000,   1,    1,  0,     0.000,     0.000,   0
   154,'2 ',   1,   2,   1,   400.000,   350.000,     0.000,     0.000,     0.000,     0.000, 100,    1,  0,     0.000,     0.000,   0
   203,'1 ',   1,   2,   2,   300.000,   150.000,     0.000,     0.000,     0.000,     0.000,   2,    1,  0,     0.000,     0.000,   0
   205,'1 ',   1,   2,   2,  1200.000,   700.000,     0.000,     0.000,     0.000,     0.000,   2,    1,  0,     0.000,     0.000,   0
  3005,'1 ',   1,   5,   5,   100.000,    50.000,     0.000,     0.000,     0.000,     0.000,   5,    1,  0,     0.000,     0.000,   0
  3007,'1 ',   1,   5,   5,   200.000,    75.000,     0.000,     0.000,     0.000,     0.000,   5,    1,  0,     0.000,     0.000,   0
  3008,'1 ',   1,   5,   5,   200.000,    75.000,     0.000,     0.000,     0.000,     0.000,   5,    1,  0,     0.000,     0.000,   0
0 / END OF LOAD DATA, BEGIN FIXED SHUNT DATA
@!   I,'ID',STATUS,  GL,        BL
   151,'1 ',1,     0.000,  -600.000
   154,'1 ',1,     0.000,   300.000
   201,'1 ',1,     0.000,   300.000
   203,'1 ',1,     0.000,    50.000
   205,'1 ',1,     0.000,   300.000
0 / END OF FIXED SHUNT DATA, BEGIN GENERATOR DATA
@!   I,'ID',      PG,        QG,        QT,        QB,     VS,    IREG,     MBASE,     ZR,         ZX,         RT,         XT,     GTAP,STAT, RMPCT,      PT,        PB,    O1,    F1,  O2,    F2,  O3,    F3,  O4,    F4,WMOD,  WPF
   101,'1 ',   750.000,    81.194,   600.000,  -100.000,1.02000,     0,   900.000, 1.00000E-2, 3.00000E-1, 0.00000E+0, 0.00000E+0,1.00000,1,  100.0,   810.000,     0.000,  11,0.6667,   1,0.3333
   102,'1 ',   750.000,    81.194,   600.000,  -100.000,1.02000,     0,   900.000, 1.00000E-2, 3.00000E-1, 0.00000E+0, 0.00000E+0,1.00000,1,  100.0,   810.000,     0.000,  11,0.6667,   1,0.3333
   206,'1 ',   800.000,   600.000,   600.000,     0.000,0.98000,   205,  1000.000, 1.00000E-2, 2.50000E-1, 0.00000E+0, 0.00000E+0,1.00000,1,  100.0,   900.000,     0.000,   2,0.4000,  22,0.6000
   211,'1 ',   600.000,    17.751,   400.000,  -100.000,1.04000,   201,   725.000, 1.00000E-2, 2.60000E-1, 0.00000E+0, 0.00000E+0,1.00000,1,  100.0,   616.250,     0.000,   2,0.4000,  22,0.6000
  3011,'1 ',   258.657,   104.042,   600.000,  -100.000,1.04000,     0,  1000.000, 1.00000E-2, 3.50000E-1, 0.00000E+0, 0.00000E+0,1.00000,1,  100.0,   900.000,     0.000,  55,0.3846,   5,0.3077,  22,0.2308,  11,0.0769
  3018,'1 ',   100.000,    80.000,    80.000,     0.000,1.02000,  3008,   130.000, 1.00000E-2, 3.50000E-1, 0.00000E+0, 0.00000E+0,1.00000,1,  100.0,   117.000,     0.000,  55,0.5556,   5,0.4444
0 / END OF GENERATOR DATA, BEGIN BRANCH DATA
@!   I,     J,'CKT',     R,          X,         B,                    'N A M E'                 ,   RATE1,   RATE2,   RATE3,   RATE4,   RATE5,   RATE6,   RATE7,   RATE8,   RATE9,  RATE10,  RATE11,  RATE12,    GI,       BI,       GJ,       BJ,STAT,MET,  LEN,  O1,  F1,    O2,  F2,    O3,  F3,    O4,  F4
   151,   152,'1 ', 2.60000E-3, 4.60000E-2,   3.50000,'                                        ', 1200.00, 1300.00,    1.00,    0.00,    0.00,    0.00,    0.00,    0.00,    0.00,    0.00,    0.00,    0.00,  0.00000,  0.00000,  0.00000,  0.00000,1,1,   0.00,   1,1.0000
   151,   152,'2 ', 2.60000E-3, 4.60000E-2,   3.50000,'                                        ', 1200.00, 1300.00,    1.00,    0.00,    0.00,    0.00,    0.00,    0.00,    0.00,    0.00,    0.00,    0.00,  0.00000,  0.00000,  0.00000,  0.00000,1,1,   0.00,   1,1.0000
   151,   201,'1 ', 1.00000E-3, 1.50000E-2,   1.20000,'                                        ', 1200.00, 1300.00,    1.00,    0.00,    0.00,    0.00,    0.00,    0.00,    0.00,    0.00,    0.00,    0.00,  0.00000,  0.00000,  0.00000,  0.00000,1,1,   0.00,   1,1.0000
   152,   202,'1 ', 8.00000E-4, 1.00000E-2,   0.95000,'                                        ', 1200.00, 1300.00,    1.00,    0.00,    0.00,    0.00,    0.00,    0.00,    0.00,    0.00,    0.00,    0.00,  0.00000,  0.00000,  0.00000,  0.00000,1,2,   0.00,   1,1.0000
   152,  3004,'1 ', 3.00000E-3, 3.00000E-2,   2.50000,'                                        ',    0.00,    0.00,    1.00,    0.00,    0.00,    0.00,    0.00,    0.00,    0.00,    0.00,    0.00,    0.00,  0.00000,  0.00000,  0.00000,  0.00000,1,1,   0.00,   1,1.0000
   153,   154,'1 ', 5.00000E-3, 4.50000E-2,   0.10000,'                                        ',  300.00,  350.00,    1.00,    0.00,    0.00,    0.00,    0.00,    0.00,    0.00,    0.00,    0.00,    0.00,  0.00000,  0.00000,  0.00000,  0.00000,1,1,   0.00,   1,0.7500, 100,0.2500
   153,   154,'2 ', 6.00000E-3, 5.40000E-2,   0.15000,'                                        ',  300.00,  350.00,    1.00,    0.00,    0.00,    0.00,    0.00,    0.00,    0.00,    0.00,    0.00,    0.00,  0.00000,  0.00000,  0.00000,  0.00000,1,1,   0.00,   1,1.0000
   153,  3006,'1 ', 1.00000E-3, 1.20000E-2,   0.03000,'                                        ',    0.00,    0.00,    1.00,    0.00,    0.00,    0.00,    0.00,    0.00,    0.00,    0.00,    0.00,    0.00,  0.00000,  0.00000,  0.00000,  0.00000,1,1,   0.00,   1,1.0000
   154,   203,'1 ', 4.00000E-3, 4.00000E-2,   0.10000,'                                        ',  200.00,  250.00,    1.00,    0.00,    0.00,    0.00,    0.00,    0.00,    0.00,    0.00,    0.00,    0.00,  0.00000,  0.00000,  0.00000,  0.00000,1,1,   0.00,   1,1.0000
   154,   205,'1 ', 3.30000E-4, 3.33000E-3,   0.09000,'                                        ',  600.00,  660.00,    1.00,    0.00,    0.00,    0.00,    0.00,    0.00,    0.00,    0.00,    0.00,    0.00,  0.00000,  0.00000,  0.00000,  0.00000,1,1,   0.00,   1,1.0000
   154,  3008,'1 ', 2.70000E-3, 2.20000E-2,   0.30000,'                                        ',  400.00,  440.00,    1.00,    0.00,    0.00,    0.00,    0.00,    0.00,    0.00,    0.00,    0.00,    0.00,  0.00000,  0.00000,  0.00000,  0.00000,1,1,   0.00,   1,1.0000
   201,   202,'1 ', 2.00000E-3, 2.50000E-2,   2.00000,'                                        ', 1200.00, 1300.00,    1.00,    0.00,    0.00,    0.00,    0.00,    0.00,    0.00,    0.00,    0.00,    0.00,  0.00000,  0.00000,  0.00000,  0.00000,1,1,   0.00,  22,1.0000
   201,   204,'1 ', 3.00000E-3, 3.00000E-2,   2.50000,'                                        ', 1200.00, 1300.00,    1.00,    0.00,    0.00,    0.00,    0.00,    0.00,    0.00,    0.00,    0.00,    0.00,  0.00000,  0.00000,  0.00000,  0.00000,1,1,   0.00,  22,1.0000
   203,   205,'1 ', 5.00000E-3, 4.50000E-2,   0.08000,'                                        ',  200.00,  250.00,    1.00,    0.00,    0.00,    0.00,    0.00,    0.00,    0.00,    0.00,    0.00,    0.00,  0.00000,  0.00000,  0.00000,  0.00000,1,2,   0.00,   2,1.0000
   203,   205,'2 ', 5.00000E-3, 4.50000E-2,   0.08000,'                                        ',  200.00,  250.00,    1.00,    0.00,    0.00,    0.00,    0.00,    0.00,    0.00,    0.00,    0.00,    0.00,  0.00000,  0.00000,  0.00000,  0.00000,1,2,   0.00,   2,1.0000
  3001,  3003,'1 ', 0.00000E+0, 8.00000E-3,   0.00000,'                                        ',    0.00,    0.00,    1.00,    0.00,    0.00,    0.00,    0.00,    0.00,    0.00,    0.00,    0.00,    0.00,  0.00000,  0.00000,  0.00000,  0.00000,1,1,   0.00,  55,1.0000
  3002,  3004,'1 ', 6.00000E-3, 5.40000E-2,   0.09000,'                                        ',    0.00,    0.00,    1.00,    0.00,    0.00,    0.00,    0.00,    0.00,    0.00,    0.00,    0.00,    0.00,  0.00000,  0.00000,  0.00000,  0.00000,1,1,   0.00,   5,1.0000
  3003,  3005,'1 ', 6.00000E-3, 5.40000E-2,   0.09000,'                                        ',    0.00,    0.00,    1.00,    0.00,    0.00,    0.00,    0.00,    0.00,    0.00,    0.00,    0.00,    0.00,  0.00000,  0.00000,  0.00000,  0.00000,1,1,   0.00,   5,1.0000
  3003,  3005,'2 ', 6.00000E-3, 5.40000E-2,   0.09000,'                                        ',    0.00,    0.00,    1.00,    0.00,    0.00,    0.00,    0.00,    0.00,    0.00,    0.00,    0.00,    0.00,  0.00000,  0.00000,  0.00000,  0.00000,1,1,   0.00,   5,1.0000
  3005,  3006,'1 ', 3.50000E-3, 3.00000E-2,   0.07000,'                                        ',    0.00,    0.00,    1.00,    0.00,    0.00,    0.00,    0.00,    0.00,    0.00,    0.00,    0.00,    0.00,  0.00000,  0.00000,  0.00000,  0.00000,1,1,   0.00,   5,1.0000
  3005,  3007,'1 ', 3.00000E-3, 2.50000E-2,   0.06000,'                                        ',    0.00,    0.00,    1.00,    0.00,    0.00,    0.00,    0.00,    0.00,    0.00,    0.00,    0.00,    0.00,  0.00000,  0.00000,  0.00000,  0.00000,1,1,   0.00,   5,1.0000
  3005,  3008,'1 ', 6.00000E-3, 5.00000E-2,   0.12000,'                                        ',    0.00,    0.00,    1.00,    0.00,    0.00,    0.00,    0.00,    0.00,    0.00,    0.00,    0.00,    0.00,  0.00000,  0.00000,  0.00000,  0.00000,1,1,   0.00,   5,1.0000
  3007,  3008,'1 ', 3.00000E-3, 2.50000E-2,   0.06000,'                                        ',    0.00,    0.00,    1.00,    0.00,    0.00,    0.00,    0.00,    0.00,    0.00,    0.00,    0.00,    0.00,  0.00000,  0.00000,  0.00000,  0.00000,1,1,   0.00,   5,1.0000
0 / END OF BRANCH DATA, BEGIN SYSTEM SWITCHING DEVICE DATA
